<?xml version="1.0" encoding="UTF-8"?>

<!-- generated on 2025-04-08 02:44:49.140969 by osmWebWizard.py v1_22_0+0002-63e50f52594
<configuration>
    <net-file value="C:\Users\rawat\2025-04-08-01-38-34\2025-04-08-02-42-45\osm.net.xml.gz"/>
    <output-trip-file value="C:\Users\rawat\2025-04-08-01-38-34\2025-04-08-02-42-45\osm.passenger.trips.xml"/>
    <route-file value="C:\Users\rawat\2025-04-08-01-38-34\2025-04-08-02-42-45\osm.passenger.rou.xml"/>
    <prefix value="veh"/>
    <trip-attributes value="departLane=&quot;best&quot;"/>
    <fringe-start-attributes value="departSpeed=&quot;max&quot;"/>
    <vehicle-class value="passenger"/>
    <lanes value="True"/>
    <fringe-factor value="5"/>
    <allow-fringe.min-length value="1000.0"/>
    <via-edge-types value="highway.motorway,highway.motorway_link,highway.trunk_link,highway.primary_link,highway.secondary_link,highway.tertiary_link"/>
    <min-distance value="300.0"/>
    <min-distance.fringe value="10.0"/>
    <remove-loops value="True"/>
    <validate value="True"/>
    <insertion-density value="12.0"/>
</configuration>
-->

<!-- generated on 2025-04-08 02:44:47 by Eclipse SUMO duarouter Version 1.22.0
<duarouterConfiguration xmlns:xsi="http://www.w3.org/2001/XMLSchema-instance" xsi:noNamespaceSchemaLocation="http://sumo.dlr.de/xsd/duarouterConfiguration.xsd">

    <input>
        <net-file value="C:\Users\rawat\2025-04-08-01-38-34\2025-04-08-02-42-45\osm.net.xml.gz"/>
        <route-files value="C:\Users\rawat\2025-04-08-01-38-34\2025-04-08-02-42-45\osm.passenger.trips.xml"/>
    </input>

    <output>
        <output-file value="C:\Users\rawat\2025-04-08-01-38-34\2025-04-08-02-42-45\osm.passenger.trips.xml.tmp"/>
        <alternatives-output value="NUL"/>
        <write-trips value="true"/>
    </output>

    <processing>
        <remove-loops value="true"/>
    </processing>

    <time>
        <begin value="0.0"/>
        <end value="3600.0"/>
    </time>

    <report>
        <no-warnings value="true"/>
        <ignore-errors value="true"/>
        <no-step-log value="true"/>
    </report>

</duarouterConfiguration>
-->

<routes xmlns:xsi="http://www.w3.org/2001/XMLSchema-instance" xsi:noNamespaceSchemaLocation="http://sumo.dlr.de/xsd/routes_file.xsd">
    <!-- Remove this line to avoid duplicate veh_passenger definition -->
    <!-- <vType id="veh_passenger" vClass="passenger"/> -->
    <trip id="veh0" type="veh_passenger" depart="0.00" departLane="best" from="465098295#0" to="1321771943#2"/>
    <trip id="veh1" type="veh_passenger" depart="0.76" departLane="best" from="1316299824#0" to="1188730002#4"/>
    <trip id="veh2" type="veh_passenger" depart="1.52" departLane="best" from="5670124" to="496980200#13"/>
    <trip id="veh3" type="veh_passenger" depart="2.28" departLane="best" from="-814612602#16" to="-666752576#2"/>
    <trip id="veh4" type="veh_passenger" depart="3.04" departLane="best" from="396444293#1" to="-194923764#6"/>
    <trip id="veh5" type="veh_passenger" depart="3.80" departLane="best" from="118400729#1" to="420901923#0"/>
    <trip id="veh6" type="veh_passenger" depart="4.56" departLane="best" from="467222812#10" to="439933932#1"/>
    <trip id="veh7" type="veh_passenger" depart="5.32" departLane="best" from="281455419#0" to="46139045"/>
    <trip id="veh8" type="veh_passenger" depart="6.08" departLane="best" from="5673427#0" to="-1088320655#0"/>
    <trip id="veh9" type="veh_passenger" depart="6.84" departLane="best" from="5673198#5" to="511699175#1"/>
    <trip id="veh10" type="veh_passenger" depart="7.60" departLane="best" from="195743344#1" to="1049837953"/>
    <trip id="veh11" type="veh_passenger" depart="8.36" departLane="best" from="957085297" to="195743165#1"/>
    <trip id="veh12" type="veh_passenger" depart="9.12" departLane="best" from="-912475761#0" to="908150696#2"/>
    <trip id="veh13" type="veh_passenger" depart="9.89" departLane="best" departSpeed="max" from="663509729#0" to="46334598#2"/>
    <trip id="veh14" type="veh_passenger" depart="10.65" departLane="best" from="5673309#1" to="5669227#1"/>
    <trip id="veh15" type="veh_passenger" depart="11.41" departLane="best" from="25199883#10" to="447001272#4"/>
    <trip id="veh16" type="veh_passenger" depart="12.17" departLane="best" from="591772211#1" to="464522037#7"/>
    <trip id="veh17" type="veh_passenger" depart="12.93" departLane="best" from="524387551#1" to="420872197#1"/>
    <trip id="veh18" type="veh_passenger" depart="13.69" departLane="best" from="1207834768#0" to="1329369155#2"/>
    <trip id="veh19" type="veh_passenger" depart="14.45" departLane="best" from="591772210#10" to="1207834768#0"/>
    <trip id="veh21" type="veh_passenger" depart="15.97" departLane="best" from="22898269#1" to="1136952921#0"/>
    <trip id="veh22" type="veh_passenger" depart="16.73" departLane="best" from="1315847472#5" to="95181774#1"/>
    <trip id="veh24" type="veh_passenger" depart="18.25" departLane="best" from="1059551869#1" to="5669205#1"/>
    <trip id="veh25" type="veh_passenger" depart="19.01" departLane="best" from="1051750428#0" to="25162679#0"/>
    <trip id="veh26" type="veh_passenger" depart="19.77" departLane="best" from="989267828#5" to="465098285#1"/>
    <trip id="veh27" type="veh_passenger" depart="20.53" departLane="best" from="457948936#1" to="496986803#11"/>
    <trip id="veh28" type="veh_passenger" depart="21.29" departLane="best" from="654560917#1" to="5671429#12"/>
    <trip id="veh30" type="veh_passenger" depart="22.81" departLane="best" from="165777255#1" to="5672937#5"/>
    <trip id="veh31" type="veh_passenger" depart="23.57" departLane="best" from="1157664114#0" to="954826394#2"/>
    <trip id="veh32" type="veh_passenger" depart="24.33" departLane="best" from="733667933#5" to="5670594#5"/>
    <trip id="veh33" type="veh_passenger" depart="25.09" departLane="best" from="479642038#1" to="32935473#2"/>
    <trip id="veh34" type="veh_passenger" depart="25.85" departLane="best" from="852992103#1" to="420356798#0"/>
    <trip id="veh35" type="veh_passenger" depart="26.61" departLane="best" from="1314038747#1" to="1266830889#1"/>
    <trip id="veh36" type="veh_passenger" depart="27.37" departLane="best" from="458166894#1" to="1298188324#1"/>
    <trip id="veh37" type="veh_passenger" depart="28.13" departLane="best" from="46154281#5" to="845781114#11"/>
    <trip id="veh38" type="veh_passenger" depart="28.90" departLane="best" from="348488665#3" to="1167942377#1"/>
    <trip id="veh39" type="veh_passenger" depart="29.66" departLane="best" from="993797876#2" to="420904659#0"/>
    <trip id="veh40" type="veh_passenger" depart="30.42" departLane="best" from="-845781907#4" to="420872204#1"/>
    <trip id="veh41" type="veh_passenger" depart="31.18" departLane="best" from="1021949727#1" to="46481095#11"/>
    <trip id="veh42" type="veh_passenger" depart="31.94" departLane="best" from="5672402#1" to="384649120#3"/>
    <trip id="veh43" type="veh_passenger" depart="32.70" departLane="best" from="-496992369#18" to="25198488#0"/>
    <trip id="veh45" type="veh_passenger" depart="34.22" departLane="best" from="968388394#0" to="68674961#9"/>
    <trip id="veh46" type="veh_passenger" depart="34.98" departLane="best" from="-1136699158#1" to="542257009#4"/>
    <trip id="veh47" type="veh_passenger" depart="35.74" departLane="best" from="496986803#4" to="438388090#1"/>
    <trip id="veh48" type="veh_passenger" depart="36.50" departLane="best" from="1315847472#1" to="465098295#0"/>
    <trip id="veh49" type="veh_passenger" depart="37.26" departLane="best" from="1021949732#2" to="396444294#4"/>
    <trip id="veh50" type="veh_passenger" depart="38.02" departLane="best" from="420358890#1" to="5669857#1"/>
    <trip id="veh51" type="veh_passenger" depart="38.78" departLane="best" from="733667933#1" to="1312939984#5"/>
    <trip id="veh52" type="veh_passenger" depart="39.54" departLane="best" departSpeed="max" from="420903239#0" to="-1080319437#1"/>
    <trip id="veh53" type="veh_passenger" depart="40.30" departLane="best" from="852992100#0" to="727702632#0"/>
    <trip id="veh54" type="veh_passenger" depart="41.06" departLane="best" from="1354945707#1" to="465098271#1"/>
    <trip id="veh55" type="veh_passenger" depart="41.82" departLane="best" from="46432187#4" to="1041018376#0"/>
    <trip id="veh56" type="veh_passenger" depart="42.58" departLane="best" from="5671172#0" to="438901427#2"/>
    <trip id="veh57" type="veh_passenger" depart="43.34" departLane="best" from="5671663#7" to="433394647#0"/>
    <trip id="veh58" type="veh_passenger" depart="44.10" departLane="best" from="1007837780#1" to="194923807#1"/>
    <trip id="veh59" type="veh_passenger" depart="44.86" departLane="best" from="1315845433#0" to="905095202#0"/>
    <trip id="veh60" type="veh_passenger" depart="45.62" departLane="best" from="767372817#1" to="-619277987#2"/>
    <trip id="veh61" type="veh_passenger" depart="46.38" departLane="best" from="156994977#1" to="-46348787#1"/>
    <trip id="veh62" type="veh_passenger" depart="47.14" departLane="best" from="763971141#3" to="954955257"/>
    <trip id="veh63" type="veh_passenger" depart="47.90" departLane="best" from="-68668559#7" to="420598366#1"/>
    <trip id="veh64" type="veh_passenger" depart="48.67" departLane="best" from="551074012#0" to="5670785#1"/>
    <trip id="veh65" type="veh_passenger" depart="49.43" departLane="best" from="5671315#1" to="1027206710#0"/>
    <trip id="veh66" type="veh_passenger" depart="50.19" departLane="best" from="420598332#0" to="446864090#1"/>
    <trip id="veh67" type="veh_passenger" depart="50.95" departLane="best" departSpeed="max" from="1314046608#0" to="729972918#2"/>
    <trip id="veh68" type="veh_passenger" depart="51.71" departLane="best" from="396444293#3" to="1150636499#1"/>
    <trip id="veh69" type="veh_passenger" depart="52.47" departLane="best" from="441405436#1" to="5669348#1"/>
    <trip id="veh70" type="veh_passenger" depart="53.23" departLane="best" from="-1135342276#1" to="162041587#2"/>
    <trip id="veh71" type="veh_passenger" depart="53.99" departLane="best" from="992141077#14" to="46610727#2"/>
    <trip id="veh72" type="veh_passenger" depart="54.75" departLane="best" from="413054857#12" to="421825692#10"/>
    <trip id="veh73" type="veh_passenger" depart="55.51" departLane="best" from="1027130513#1" to="1188730093#0"/>
    <trip id="veh74" type="veh_passenger" depart="56.27" departLane="best" from="195743208#2" to="46139039#14"/>
    <trip id="veh75" type="veh_passenger" depart="57.03" departLane="best" from="1230533115#1" to="1167942379"/>
    <trip id="veh76" type="veh_passenger" depart="57.79" departLane="best" from="5670254#11" to="46481741#2"/>
    <trip id="veh78" type="veh_passenger" depart="59.31" departLane="best" from="68674961#1" to="542259076#1"/>
    <trip id="veh79" type="veh_passenger" depart="60.07" departLane="best" from="125528659#1" to="492148700#1"/>
    <trip id="veh80" type="veh_passenger" depart="60.83" departLane="best" departSpeed="max" from="116672642" to="1027227127#1"/>
    <trip id="veh81" type="veh_passenger" depart="61.59" departLane="best" from="5673323#2" to="1088321124#5"/>
    <trip id="veh82" type="veh_passenger" depart="62.35" departLane="best" from="1003466064#1" to="396444293#1"/>
    <trip id="veh83" type="veh_passenger" depart="63.11" departLane="best" from="396444293#4" to="420499932#4"/>
    <trip id="veh84" type="veh_passenger" depart="63.87" departLane="best" from="5669922#0" to="-496977101#2"/>
    <trip id="veh85" type="veh_passenger" depart="64.63" departLane="best" from="986615539#0" to="-986808853#0"/>
    <trip id="veh87" type="veh_passenger" depart="66.15" departLane="best" from="68674965#1" to="1266830891#0"/>
    <trip id="veh88" type="veh_passenger" depart="66.91" departLane="best" from="-1088325196#1" to="420352240#0"/>
    <trip id="veh89" type="veh_passenger" depart="67.68" departLane="best" from="396444293#0" to="1316831692#1"/>
    <trip id="veh90" type="veh_passenger" depart="68.44" departLane="best" from="127691872#7" to="889114533#7"/>
    <trip id="veh91" type="veh_passenger" depart="69.20" departLane="best" from="420352243#1" to="68674965#1"/>
    <trip id="veh92" type="veh_passenger" depart="69.96" departLane="best" from="451954843" to="438389785#1"/>
    <trip id="veh93" type="veh_passenger" depart="70.72" departLane="best" from="993797888#1" to="630828586#3"/>
    <trip id="veh94" type="veh_passenger" depart="71.48" departLane="best" from="963575587#0" to="903593425#1"/>
    <trip id="veh95" type="veh_passenger" depart="72.24" departLane="best" from="663797737#1" to="1051750427#1"/>
    <trip id="veh96" type="veh_passenger" depart="73.00" departLane="best" from="420872188#1" to="1156475401#1"/>
    <trip id="veh97" type="veh_passenger" depart="73.76" departLane="best" from="350726028#4" to="-46348787#3"/>
    <trip id="veh98" type="veh_passenger" depart="74.52" departLane="best" from="25199883#7" to="988987061#3"/>
    <trip id="veh99" type="veh_passenger" depart="75.28" departLane="best" departSpeed="max" from="1314046608#0" to="5671774#1"/>
    <trip id="veh100" type="veh_passenger" depart="76.04" departLane="best" from="420358892#0" to="384649120#9"/>
    <trip id="veh101" type="veh_passenger" depart="76.80" departLane="best" from="957085297" to="992141077#4"/>
    <trip id="veh102" type="veh_passenger" depart="77.56" departLane="best" from="456447349#0" to="541351705#1"/>
    <trip id="veh103" type="veh_passenger" depart="78.32" departLane="best" from="569345515#11" to="1347184249#0"/>
    <trip id="veh104" type="veh_passenger" depart="79.08" departLane="best" from="963575587#0" to="458180184#0"/>
    <trip id="veh105" type="veh_passenger" depart="79.84" departLane="best" from="1135346522#1" to="5670296#1"/>
    <trip id="veh106" type="veh_passenger" depart="80.60" departLane="best" from="-46332295#7" to="46139033#1"/>
    <trip id="veh108" type="veh_passenger" depart="82.12" departLane="best" from="1049920717#1" to="963551551#1"/>
    <trip id="veh109" type="veh_passenger" depart="82.88" departLane="best" from="-591772210#2" to="-1088005912#0"/>
    <trip id="veh110" type="veh_passenger" depart="83.64" departLane="best" from="46201655#8" to="496979224#1"/>
    <trip id="veh111" type="veh_passenger" depart="84.40" departLane="best" from="125479715#4" to="1023236297#0"/>
    <trip id="veh112" type="veh_passenger" depart="85.16" departLane="best" from="813970416#1" to="1266830889#0"/>
    <trip id="veh115" type="veh_passenger" depart="87.45" departLane="best" from="433398367#1" to="939613202#1"/>
    <trip id="veh116" type="veh_passenger" depart="88.21" departLane="best" from="1136393331#0" to="539024460#2"/>
    <trip id="veh117" type="veh_passenger" depart="88.97" departLane="best" from="1266830886#1" to="32935473#2"/>
    <trip id="veh118" type="veh_passenger" depart="89.73" departLane="best" from="496979224#1" to="1362572651#0"/>
    <trip id="veh119" type="veh_passenger" depart="90.49" departLane="best" from="165777951#5" to="5670522#1"/>
    <trip id="veh120" type="veh_passenger" depart="91.25" departLane="best" from="-5671315#1" to="420356173#0"/>
    <trip id="veh121" type="veh_passenger" depart="92.01" departLane="best" from="993797880#0" to="992164861"/>
    <trip id="veh122" type="veh_passenger" depart="92.77" departLane="best" from="-5671774#14" to="1156469033#1"/>
    <trip id="veh123" type="veh_passenger" depart="93.53" departLane="best" departSpeed="max" from="1314046608#0" to="936539648#3"/>
    <trip id="veh124" type="veh_passenger" depart="94.29" departLane="best" from="771759769#0" to="767683109"/>
    <trip id="veh125" type="veh_passenger" depart="95.05" departLane="best" from="22898269#0" to="1049841322#10"/>
    <trip id="veh126" type="veh_passenger" depart="95.81" departLane="best" from="619277987#2" to="518451322#1"/>
    <trip id="veh128" type="veh_passenger" depart="97.33" departLane="best" from="479642033#5" to="-1088325195#1"/>
    <trip id="veh129" type="veh_passenger" depart="98.09" departLane="best" from="569345545#0" to="1361048663"/>
    <trip id="veh130" type="veh_passenger" depart="98.85" departLane="best" from="488376503#0" to="954520389#0"/>
    <trip id="veh131" type="veh_passenger" depart="99.61" departLane="best" from="1031408122#0" to="1021949731#1"/>
    <trip id="veh132" type="veh_passenger" depart="100.37" departLane="best" from="1021949719#1" to="450807242#1"/>
    <trip id="veh133" type="veh_passenger" depart="101.13" departLane="best" from="1316299803#1" to="46334602#1"/>
    <trip id="veh134" type="veh_passenger" depart="101.89" departLane="best" from="542257008#1" to="1135342275#1"/>
    <trip id="veh135" type="veh_passenger" depart="102.65" departLane="best" from="46490538#6" to="1312939984#9"/>
    <trip id="veh136" type="veh_passenger" depart="103.41" departLane="best" from="420872193#4" to="847931436#18"/>
    <trip id="veh137" type="veh_passenger" depart="104.17" departLane="best" from="663499005#3" to="-813956617#8"/>
    <trip id="veh138" type="veh_passenger" depart="104.93" departLane="best" from="396444293#4" to="1316299834#1"/>
    <trip id="veh139" type="veh_passenger" depart="105.70" departLane="best" from="-1080982436#1" to="5671291#5"/>
    <trip id="veh140" type="veh_passenger" depart="106.46" departLane="best" from="-1317744354#1" to="1296664633#1"/>
    <trip id="veh141" type="veh_passenger" depart="107.22" departLane="best" from="5670451#6" to="447001272#4"/>
    <trip id="veh142" type="veh_passenger" depart="107.98" departLane="best" from="396444295#4" to="-1135342273#2"/>
    <trip id="veh144" type="veh_passenger" depart="109.50" departLane="best" from="846127259#2" to="439933934#1"/>
    <trip id="veh145" type="veh_passenger" depart="110.26" departLane="best" from="620939495#0" to="460589632#1"/>
    <trip id="veh146" type="veh_passenger" depart="111.02" departLane="best" from="1038772918#0" to="1027181006#0"/>
    <trip id="veh147" type="veh_passenger" depart="111.78" departLane="best" from="157012386#14" to="845781907#1"/>
    <trip id="veh148" type="veh_passenger" depart="112.54" departLane="best" from="5672625#2" to="68674961#9"/>
    <trip id="veh149" type="veh_passenger" depart="113.30" departLane="best" from="843553760#8" to="1144268432#1"/>
    <trip id="veh150" type="veh_passenger" depart="114.06" departLane="best" from="127691872#1" to="1007833787#0"/>
    <trip id="veh151" type="veh_passenger" depart="114.82" departLane="best" from="5671711#2" to="799825254"/>
    <trip id="veh152" type="veh_passenger" depart="115.58" departLane="best" from="36806903#1" to="464683321#1"/>
    <trip id="veh153" type="veh_passenger" depart="116.34" departLane="best" from="569345515#11" to="910363795#0"/>
    <trip id="veh154" type="veh_passenger" depart="117.10" departLane="best" from="706833044#1" to="968737543#1"/>
    <trip id="veh156" type="veh_passenger" depart="118.62" departLane="best" from="-1333670673#0" to="5669922#0"/>
    <trip id="veh157" type="veh_passenger" depart="119.38" departLane="best" from="194926849#2" to="923090985#4"/>
    <trip id="veh158" type="veh_passenger" depart="120.14" departLane="best" from="5672992#1" to="700951339#1"/>
    <trip id="veh160" type="veh_passenger" depart="121.66" departLane="best" from="5672142#7" to="1021124545#1"/>
    <trip id="veh161" type="veh_passenger" depart="122.42" departLane="best" from="729972918#2" to="68674960#0"/>
    <trip id="veh163" type="veh_passenger" depart="123.94" departLane="best" from="420499932#4" to="139919714#1"/>
    <trip id="veh164" type="veh_passenger" depart="124.71" departLane="best" from="5672604#5" to="1198594029#0"/>
    <trip id="veh165" type="veh_passenger" depart="125.47" departLane="best" from="-1329876948#0" to="1088327050#0"/>
    <trip id="veh166" type="veh_passenger" depart="126.23" departLane="best" from="194923810#7" to="706833044#5"/>
    <trip id="veh167" type="veh_passenger" depart="126.99" departLane="best" from="963567034#1" to="1316831693#0"/>
    <trip id="veh168" type="veh_passenger" depart="127.75" departLane="best" from="46522006#2" to="32937066#0"/>
    <trip id="veh169" type="veh_passenger" depart="128.51" departLane="best" from="976050704#3" to="438385431#4"/>
    <trip id="veh170" type="veh_passenger" depart="129.27" departLane="best" from="947916171#1" to="1021949731#1"/>
    <trip id="veh171" type="veh_passenger" depart="130.03" departLane="best" from="966105510#0" to="1077735924"/>
    <trip id="veh172" type="veh_passenger" depart="130.79" departLane="best" departSpeed="max" from="959157335" to="1315845433#0"/>
    <trip id="veh173" type="veh_passenger" depart="131.55" departLane="best" from="1021949724#1" to="396444294#24"/>
    <trip id="veh174" type="veh_passenger" depart="132.31" departLane="best" from="5669899#1" to="165777194#0"/>
    <trip id="veh175" type="veh_passenger" depart="133.07" departLane="best" departSpeed="max" from="46359922" to="420906753#1"/>
    <trip id="veh176" type="veh_passenger" depart="133.83" departLane="best" from="31984130#0" to="458177133#5"/>
    <trip id="veh177" type="veh_passenger" depart="134.59" departLane="best" departSpeed="max" from="127693200#1" to="524394634#4"/>
    <trip id="veh178" type="veh_passenger" depart="135.35" departLane="best" from="-1067449185#1" to="895394557#1"/>
    <trip id="veh179" type="veh_passenger" depart="136.11" departLane="best" from="440681436#1" to="542096279#1"/>
    <trip id="veh180" type="veh_passenger" depart="136.87" departLane="best" from="5670466#1" to="492148703#4"/>
    <trip id="veh181" type="veh_passenger" depart="137.63" departLane="best" from="226041005#1" to="-542096278#2"/>
    <trip id="veh182" type="veh_passenger" depart="138.39" departLane="best" from="489019752#1" to="194926849#1"/>
    <trip id="veh185" type="veh_passenger" depart="140.67" departLane="best" from="157012386#27" to="349873701#1"/>
    <trip id="veh186" type="veh_passenger" depart="141.43" departLane="best" from="352705238#3" to="1343731013#0"/>
    <trip id="veh187" type="veh_passenger" depart="142.19" departLane="best" from="1029634435#1" to="384178813#1"/>
    <trip id="veh188" type="veh_passenger" depart="142.95" departLane="best" from="954178925#0" to="420352250#1"/>
    <trip id="veh189" type="veh_passenger" depart="143.71" departLane="best" from="845994219#2" to="464516471#16"/>
    <trip id="veh190" type="veh_passenger" depart="144.48" departLane="best" departSpeed="max" from="1364243214#0" to="441405436#1"/>
    <trip id="veh191" type="veh_passenger" depart="145.24" departLane="best" from="1007837779#1" to="1320290376#0"/>
    <trip id="veh192" type="veh_passenger" depart="146.00" departLane="best" from="397795463#1" to="458180186#3"/>
    <trip id="veh193" type="veh_passenger" depart="146.76" departLane="best" from="479642035#4" to="420358898#6"/>
    <trip id="veh194" type="veh_passenger" depart="147.52" departLane="best" from="420352240#0" to="1156475401#1"/>
    <trip id="veh195" type="veh_passenger" depart="148.28" departLane="best" from="420598294#1" to="846046868#0"/>
    <trip id="veh196" type="veh_passenger" depart="149.04" departLane="best" from="5672625#2" to="1051856442"/>
    <trip id="veh197" type="veh_passenger" depart="149.80" departLane="best" from="-68668521#4" to="420908132#1"/>
    <trip id="veh198" type="veh_passenger" depart="150.56" departLane="best" from="46482538#1" to="194926855#0"/>
    <trip id="veh199" type="veh_passenger" depart="151.32" departLane="best" from="569345547#1" to="-5670510#1"/>
    <trip id="veh200" type="veh_passenger" depart="152.08" departLane="best" from="496980200#13" to="1188730093#0"/>
    <trip id="veh201" type="veh_passenger" depart="152.84" departLane="best" from="1124078898#1" to="1321771943#1"/>
    <trip id="veh202" type="veh_passenger" depart="153.60" departLane="best" from="1266830893#1" to="420598232#0"/>
    <trip id="veh203" type="veh_passenger" depart="154.36" departLane="best" from="667344132#1" to="5670087#1"/>
    <trip id="veh204" type="veh_passenger" depart="155.12" departLane="best" from="384649121#1" to="46481738#0"/>
    <trip id="veh205" type="veh_passenger" depart="155.88" departLane="best" from="1106482768#1" to="505317789#0"/>
    <trip id="veh206" type="veh_passenger" depart="156.64" departLane="best" from="420901919#1" to="1266830886#1"/>
    <trip id="veh207" type="veh_passenger" depart="157.40" departLane="best" from="479642042#3" to="1088320650#1"/>
    <trip id="veh208" type="veh_passenger" depart="158.16" departLane="best" from="5670756#1" to="5671291#3"/>
    <trip id="veh209" type="veh_passenger" depart="158.92" departLane="best" from="5672142#1" to="386972970#1"/>
    <trip id="veh211" type="veh_passenger" depart="160.44" departLane="best" departSpeed="max" from="432550168" to="438381568#4"/>
    <trip id="veh213" type="veh_passenger" depart="161.96" departLane="best" from="420358896#7" to="5672922#4"/>
    <trip id="veh215" type="veh_passenger" depart="163.49" departLane="best" from="46201665#0" to="955261517#1"/>
    <trip id="veh216" type="veh_passenger" depart="164.25" departLane="best" from="814612602#0" to="464516471#13"/>
    <trip id="veh217" type="veh_passenger" depart="165.01" departLane="best" from="542258061#2" to="420901922#0"/>
    <trip id="veh218" type="veh_passenger" depart="165.77" departLane="best" from="600848485#1" to="441405436#1"/>
    <trip id="veh220" type="veh_passenger" depart="167.29" departLane="best" from="420598327#0" to="127693383#1"/>
    <trip id="veh221" type="veh_passenger" depart="168.05" departLane="best" from="1271581112#0" to="46492639#0"/>
    <trip id="veh222" type="veh_passenger" depart="168.81" departLane="best" from="5671315#1" to="421832644#0"/>
    <trip id="veh223" type="veh_passenger" depart="169.57" departLane="best" from="46481095#11" to="1316299824#3"/>
    <trip id="veh224" type="veh_passenger" depart="170.33" departLane="best" from="-5672991#4" to="1320225051"/>
    <trip id="veh225" type="veh_passenger" depart="171.09" departLane="best" from="1316295725#5" to="194923761#0"/>
    <trip id="veh226" type="veh_passenger" depart="171.85" departLane="best" from="44165030#0" to="1031408124#0"/>
    <trip id="veh227" type="veh_passenger" depart="172.61" departLane="best" from="1238156665#1" to="497002542#1"/>
    <trip id="veh228" type="veh_passenger" depart="173.37" departLane="best" from="524395517#1" to="-496977101#2"/>
    <trip id="veh229" type="veh_passenger" depart="174.13" departLane="best" departSpeed="max" from="380093631#0" to="439842835#1"/>
    <trip id="veh230" type="veh_passenger" depart="174.89" departLane="best" from="385668565#2" to="1135620537#1"/>
    <trip id="veh231" type="veh_passenger" depart="175.65" departLane="best" from="388240124#8" to="847931436#1"/>
    <trip id="veh232" type="veh_passenger" depart="176.41" departLane="best" from="46154281#1" to="497769953#1"/>
    <trip id="veh233" type="veh_passenger" depart="177.17" departLane="best" from="68668541#1" to="5670932#2"/>
    <trip id="veh234" type="veh_passenger" depart="177.93" departLane="best" from="256902826#1" to="-1088320651#1"/>
    <trip id="veh235" type="veh_passenger" depart="178.69" departLane="best" from="221157083#1" to="5670579#1"/>
    <trip id="veh236" type="veh_passenger" depart="179.45" departLane="best" from="68668519#1" to="955301423#5"/>
    <trip id="veh237" type="veh_passenger" depart="180.21" departLane="best" from="388240124#16" to="-5670254#8"/>
    <trip id="veh238" type="veh_passenger" depart="180.97" departLane="best" from="451905565#1" to="46334597#1"/>
    <trip id="veh239" type="veh_passenger" depart="181.73" departLane="best" from="281455419#0" to="1167942377#1"/>
    <trip id="veh240" type="veh_passenger" depart="182.50" departLane="best" departSpeed="max" from="412174929#0" to="194923763#1"/>
    <trip id="veh241" type="veh_passenger" depart="183.26" departLane="best" from="195743182#1" to="496980200#7"/>
    <trip id="veh242" type="veh_passenger" depart="184.02" departLane="best" from="36801165#1" to="1051743127#1"/>
    <trip id="veh243" type="veh_passenger" depart="184.78" departLane="best" from="420598230#2" to="1027181006#0"/>
    <trip id="veh244" type="veh_passenger" depart="185.54" departLane="best" from="464683341#9" to="-1354945707#2"/>
    <trip id="veh245" type="veh_passenger" depart="186.30" departLane="best" departSpeed="max" from="335935797#0" to="456313638#1"/>
    <trip id="veh246" type="veh_passenger" depart="187.06" departLane="best" from="167922077#0" to="46522006#1"/>
    <trip id="veh247" type="veh_passenger" depart="187.82" departLane="best" from="1031408125#1" to="420358894#0"/>
    <trip id="veh248" type="veh_passenger" depart="188.58" departLane="best" from="438389785#1" to="24264070#1"/>
    <trip id="veh249" type="veh_passenger" depart="189.34" departLane="best" from="-1159053669#3" to="194923810#9"/>
    <trip id="veh250" type="veh_passenger" depart="190.10" departLane="best" from="5671083#0" to="24264070#1"/>
    <trip id="veh251" type="veh_passenger" depart="190.86" departLane="best" from="5670756#8" to="619277989#2"/>
    <trip id="veh252" type="veh_passenger" depart="191.62" departLane="best" from="127693199#5" to="-584971499#0"/>
    <trip id="veh253" type="veh_passenger" depart="192.38" departLane="best" from="1315845428#1" to="438901427#2"/>
    <trip id="veh254" type="veh_passenger" depart="193.14" departLane="best" from="-997125811#3" to="196117042#7"/>
    <trip id="veh255" type="veh_passenger" depart="193.90" departLane="best" from="467222812#5" to="5672896#5"/>
    <trip id="veh256" type="veh_passenger" depart="194.66" departLane="best" from="474635899#1" to="5670594#5"/>
    <trip id="veh257" type="veh_passenger" depart="195.42" departLane="best" from="954955256#2" to="111826111#4"/>
    <trip id="veh258" type="veh_passenger" depart="196.18" departLane="best" from="-1317731495#0" to="1041012064#0"/>
    <trip id="veh259" type="veh_passenger" depart="196.94" departLane="best" from="1027227121#1" to="492148701#3"/>